
Version,
  9.2;                                    !- Version Identifier

Timestep,
  6;                                      !- Number of Timesteps per Hour

LifeCycleCost:Parameters,
  Life Cycle Cost Parameters,             !- Name
  EndOfYear,                              !- Discounting Convention
  ConstantDollar,                         !- Inflation Approach
  0.03,                                   !- Real Discount Rate
  ,                                       !- Nominal Discount Rate
  ,                                       !- Inflation
  ,                                       !- Base Date Month
  2011,                                   !- Base Date Year
  ,                                       !- Service Date Month
  2011,                                   !- Service Date Year
  25,                                     !- Length of Study Period in Years
  ,                                       !- Tax rate
  None;                                   !- Depreciation Method

LifeCycleCost:UsePriceEscalation,
  U.S. Avg  Commercial-Electricity,       !- LCC Price Escalation Name
  Electricity,                            !- Resource
  2011,                                   !- Escalation Start Year
  January,                                !- Escalation Start Month
  0.9838,                                 !- Year Escalation 1
  0.9730,                                 !- Year Escalation 2
  0.9632,                                 !- Year Escalation 3
  0.9611,                                 !- Year Escalation 4
  0.9571,                                 !- Year Escalation 5
  0.9553,                                 !- Year Escalation 6
  0.9539,                                 !- Year Escalation 7
  0.9521,                                 !- Year Escalation 8
  0.9546,                                 !- Year Escalation 9
  0.9550,                                 !- Year Escalation 10
  0.9553,                                 !- Year Escalation 11
  0.9564,                                 !- Year Escalation 12
  0.9575,                                 !- Year Escalation 13
  0.9596,                                 !- Year Escalation 14
  0.9618,                                 !- Year Escalation 15
  0.9614,                                 !- Year Escalation 16
  0.9618,                                 !- Year Escalation 17
  0.9618,                                 !- Year Escalation 18
  0.9593,                                 !- Year Escalation 19
  0.9589,                                 !- Year Escalation 20
  0.9607,                                 !- Year Escalation 21
  0.9625,                                 !- Year Escalation 22
  0.9650,                                 !- Year Escalation 23
  0.9708,                                 !- Year Escalation 24
  0.9751,                                 !- Year Escalation 25
  0.9762,                                 !- Year Escalation 26
  0.9766,                                 !- Year Escalation 27
  0.9766,                                 !- Year Escalation 28
  0.9769,                                 !- Year Escalation 29
  0.9773;                                 !- Year Escalation 30

LifeCycleCost:UsePriceEscalation,
  U.S. Avg  Commercial-Distillate Oil,    !- LCC Price Escalation Name
  FuelOil#1,                              !- Resource
  2011,                                   !- Escalation Start Year
  January,                                !- Escalation Start Month
  0.9714,                                 !- Year Escalation 1
  0.9730,                                 !- Year Escalation 2
  0.9942,                                 !- Year Escalation 3
  1.0164,                                 !- Year Escalation 4
  1.0541,                                 !- Year Escalation 5
  1.0928,                                 !- Year Escalation 6
  1.1267,                                 !- Year Escalation 7
  1.1580,                                 !- Year Escalation 8
  1.1792,                                 !- Year Escalation 9
  1.1967,                                 !- Year Escalation 10
  1.2200,                                 !- Year Escalation 11
  1.2333,                                 !- Year Escalation 12
  1.2566,                                 !- Year Escalation 13
  1.2709,                                 !- Year Escalation 14
  1.2826,                                 !- Year Escalation 15
  1.2985,                                 !- Year Escalation 16
  1.3102,                                 !- Year Escalation 17
  1.3250,                                 !- Year Escalation 18
  1.3261,                                 !- Year Escalation 19
  1.3282,                                 !- Year Escalation 20
  1.3324,                                 !- Year Escalation 21
  1.3356,                                 !- Year Escalation 22
  1.3431,                                 !- Year Escalation 23
  1.3510,                                 !- Year Escalation 24
  1.3568,                                 !- Year Escalation 25
  1.3606,                                 !- Year Escalation 26
  1.3637,                                 !- Year Escalation 27
  1.3674,                                 !- Year Escalation 28
  1.3706,                                 !- Year Escalation 29
  1.3743;                                 !- Year Escalation 30

LifeCycleCost:UsePriceEscalation,
  U.S. Avg  Commercial-Residual Oil,      !- LCC Price Escalation Name
  FuelOil#2,                              !- Resource
  2011,                                   !- Escalation Start Year
  January,                                !- Escalation Start Month
  0.8469,                                 !- Year Escalation 1
  0.8257,                                 !- Year Escalation 2
  0.8681,                                 !- Year Escalation 3
  0.8988,                                 !- Year Escalation 4
  0.9289,                                 !- Year Escalation 5
  0.9604,                                 !- Year Escalation 6
  0.9897,                                 !- Year Escalation 7
  1.0075,                                 !- Year Escalation 8
  1.0314,                                 !- Year Escalation 9
  1.0554,                                 !- Year Escalation 10
  1.0861,                                 !- Year Escalation 11
  1.1278,                                 !- Year Escalation 12
  1.1497,                                 !- Year Escalation 13
  1.1620,                                 !- Year Escalation 14
  1.1743,                                 !- Year Escalation 15
  1.1852,                                 !- Year Escalation 16
  1.1948,                                 !- Year Escalation 17
  1.2037,                                 !- Year Escalation 18
  1.2071,                                 !- Year Escalation 19
  1.2119,                                 !- Year Escalation 20
  1.2139,                                 !- Year Escalation 21
  1.2194,                                 !- Year Escalation 22
  1.2276,                                 !- Year Escalation 23
  1.2365,                                 !- Year Escalation 24
  1.2420,                                 !- Year Escalation 25
  1.2461,                                 !- Year Escalation 26
  1.2509,                                 !- Year Escalation 27
  1.2550,                                 !- Year Escalation 28
  1.2591,                                 !- Year Escalation 29
  1.2638;                                 !- Year Escalation 30

LifeCycleCost:UsePriceEscalation,
  U.S. Avg  Commercial-Natural gas,       !- LCC Price Escalation Name
  NaturalGas,                             !- Resource
  2011,                                   !- Escalation Start Year
  January,                                !- Escalation Start Month
  0.9823,                                 !- Year Escalation 1
  0.9557,                                 !- Year Escalation 2
  0.9279,                                 !- Year Escalation 3
  0.9257,                                 !- Year Escalation 4
  0.9346,                                 !- Year Escalation 5
  0.9412,                                 !- Year Escalation 6
  0.9512,                                 !- Year Escalation 7
  0.9645,                                 !- Year Escalation 8
  0.9856,                                 !- Year Escalation 9
  1.0067,                                 !- Year Escalation 10
  1.0222,                                 !- Year Escalation 11
  1.0410,                                 !- Year Escalation 12
  1.0610,                                 !- Year Escalation 13
  1.0787,                                 !- Year Escalation 14
  1.0942,                                 !- Year Escalation 15
  1.1098,                                 !- Year Escalation 16
  1.1220,                                 !- Year Escalation 17
  1.1308,                                 !- Year Escalation 18
  1.1386,                                 !- Year Escalation 19
  1.1486,                                 !- Year Escalation 20
  1.1619,                                 !- Year Escalation 21
  1.1763,                                 !- Year Escalation 22
  1.1918,                                 !- Year Escalation 23
  1.2118,                                 !- Year Escalation 24
  1.2284,                                 !- Year Escalation 25
  1.2439,                                 !- Year Escalation 26
  1.2605,                                 !- Year Escalation 27
  1.2772,                                 !- Year Escalation 28
  1.2938,                                 !- Year Escalation 29
  1.3115;                                 !- Year Escalation 30

LifeCycleCost:UsePriceEscalation,
  U.S. Avg  Commercial-Coal,              !- LCC Price Escalation Name
  Coal,                                   !- Resource
  2011,                                   !- Escalation Start Year
  January,                                !- Escalation Start Month
  0.9970,                                 !- Year Escalation 1
  1.0089,                                 !- Year Escalation 2
  1.0089,                                 !- Year Escalation 3
  0.9941,                                 !- Year Escalation 4
  0.9941,                                 !- Year Escalation 5
  1.0000,                                 !- Year Escalation 6
  1.0030,                                 !- Year Escalation 7
  1.0059,                                 !- Year Escalation 8
  1.0089,                                 !- Year Escalation 9
  1.0119,                                 !- Year Escalation 10
  1.0148,                                 !- Year Escalation 11
  1.0178,                                 !- Year Escalation 12
  1.0208,                                 !- Year Escalation 13
  1.0267,                                 !- Year Escalation 14
  1.0297,                                 !- Year Escalation 15
  1.0356,                                 !- Year Escalation 16
  1.0415,                                 !- Year Escalation 17
  1.0534,                                 !- Year Escalation 18
  1.0564,                                 !- Year Escalation 19
  1.0593,                                 !- Year Escalation 20
  1.0653,                                 !- Year Escalation 21
  1.0712,                                 !- Year Escalation 22
  1.0742,                                 !- Year Escalation 23
  1.0801,                                 !- Year Escalation 24
  1.0831,                                 !- Year Escalation 25
  1.0831,                                 !- Year Escalation 26
  1.0861,                                 !- Year Escalation 27
  1.0890,                                 !- Year Escalation 28
  1.0920,                                 !- Year Escalation 29
  1.0950;                                 !- Year Escalation 30

Building,
  Nuevo edificio LIER,                    !- Name
  ,                                       !- North Axis {deg}
  ,                                       !- Terrain
  ,                                       !- Loads Convergence Tolerance Value
  ,                                       !- Temperature Convergence Tolerance Value {deltaC}
  ,                                       !- Solar Distribution
  ,                                       !- Maximum Number of Warmup Days
  ;                                       !- Minimum Number of Warmup Days

Shading:Building:Detailed,
  Shading Surface 1,                      !- Name
  ,                                       !- Transmittance Schedule Name
  ,                                       !- Number of Vertices
  0, -3.85202015365058e-16, 13.405,       !- X,Y,Z Vertex 1 {m}
  0, 12.41, 13.405,                       !- X,Y,Z Vertex 2 {m}
  -7.39125, -1.92601007682529e-16, 13.405; !- X,Y,Z Vertex 3 {m}

Shading:Building:Detailed,
  Shading Surface 10,                     !- Name
  ,                                       !- Transmittance Schedule Name
  ,                                       !- Number of Vertices
  36.9, 3.05, 8.85,                       !- X,Y,Z Vertex 1 {m}
  36.9, 3.05, 4.3,                        !- X,Y,Z Vertex 2 {m}
  36.9, 12.92, 4.3,                       !- X,Y,Z Vertex 3 {m}
  36.9, 12.92, 8.85;                      !- X,Y,Z Vertex 4 {m}

Shading:Building:Detailed,
  Shading Surface 11,                     !- Name
  ,                                       !- Transmittance Schedule Name
  ,                                       !- Number of Vertices
  36.9, -1.28499081913282e-15, 13.405,    !- X,Y,Z Vertex 1 {m}
  36.9, 12.92, 13.405,                    !- X,Y,Z Vertex 2 {m}
  32.3, 12.92, 13.405,                    !- X,Y,Z Vertex 3 {m}
  32.3, 2.46694135579585e-31, 13.405;     !- X,Y,Z Vertex 4 {m}

Shading:Building:Detailed,
  Shading Surface 12,                     !- Name
  ,                                       !- Transmittance Schedule Name
  ,                                       !- Number of Vertices
  0, 0, 8.85,                             !- X,Y,Z Vertex 1 {m}
  0, 12.41, 8.85,                         !- X,Y,Z Vertex 2 {m}
  -7.39125, 3.07215118125639e-15, 8.85;   !- X,Y,Z Vertex 3 {m}

Shading:Building:Detailed,
  Shading Surface 13,                     !- Name
  ,                                       !- Transmittance Schedule Name
  ,                                       !- Number of Vertices
  0, 12.41, 13.405,                       !- X,Y,Z Vertex 1 {m}
  0, 12.41, 8.85,                         !- X,Y,Z Vertex 2 {m}
  -7.39125, 3.07215118125639e-15, 8.85,   !- X,Y,Z Vertex 3 {m}
  -7.39125, 2.76265004782136e-15, 13.405; !- X,Y,Z Vertex 4 {m}

Shading:Building:Detailed,
  Shading Surface 14,                     !- Name
  ,                                       !- Transmittance Schedule Name
  ,                                       !- Number of Vertices
  0, 12.41, 4.3,                          !- X,Y,Z Vertex 1 {m}
  0, 12.41, 0,                            !- X,Y,Z Vertex 2 {m}
  -7.39125, 0, 0,                         !- X,Y,Z Vertex 3 {m}
  -7.39125, 4.60610944279011e-15, 4.3;    !- X,Y,Z Vertex 4 {m}

Shading:Building:Detailed,
  Shading Surface 15,                     !- Name
  ,                                       !- Transmittance Schedule Name
  ,                                       !- Number of Vertices
  32.3, 4.485, 13.405,                    !- X,Y,Z Vertex 1 {m}
  32.3, 6.285, 13.405,                    !- X,Y,Z Vertex 2 {m}
  31.05, 6.285, 13.405,                   !- X,Y,Z Vertex 3 {m}
  31.05, 4.485, 13.405;                   !- X,Y,Z Vertex 4 {m}

Shading:Building:Detailed,
  Shading Surface 2,                      !- Name
  ,                                       !- Transmittance Schedule Name
  ,                                       !- Number of Vertices
  36.9, 3.05, 13.405,                     !- X,Y,Z Vertex 1 {m}
  36.9, 3.05, 8.85,                       !- X,Y,Z Vertex 2 {m}
  36.9, 12.92, 8.85,                      !- X,Y,Z Vertex 3 {m}
  36.9, 12.92, 13.405;                    !- X,Y,Z Vertex 4 {m}

Shading:Building:Detailed,
  Shading Surface 3,                      !- Name
  ,                                       !- Transmittance Schedule Name
  ,                                       !- Number of Vertices
  0, 15.76, 13.405,                       !- X,Y,Z Vertex 1 {m}
  0, 15.76, 0,                            !- X,Y,Z Vertex 2 {m}
  0, 12.41, 0,                            !- X,Y,Z Vertex 3 {m}
  0, 12.41, 13.405;                       !- X,Y,Z Vertex 4 {m}

Shading:Building:Detailed,
  Shading Surface 4,                      !- Name
  ,                                       !- Transmittance Schedule Name
  ,                                       !- Number of Vertices
  0, 2.79690761054652e-15, 4.3,           !- X,Y,Z Vertex 1 {m}
  0, 12.41, 4.3,                          !- X,Y,Z Vertex 2 {m}
  -7.39125, 4.60610944279011e-15, 4.3;    !- X,Y,Z Vertex 3 {m}

Shading:Building:Detailed,
  Shading Surface 5,                      !- Name
  ,                                       !- Transmittance Schedule Name
  ,                                       !- Number of Vertices
  36.9, 0, 8.85,                          !- X,Y,Z Vertex 1 {m}
  36.9, 12.92, 8.85,                      !- X,Y,Z Vertex 2 {m}
  32.3, 12.92, 8.85,                      !- X,Y,Z Vertex 3 {m}
  32.3, 0, 8.85;                          !- X,Y,Z Vertex 4 {m}

Shading:Building:Detailed,
  Shading Surface 6,                      !- Name
  ,                                       !- Transmittance Schedule Name
  ,                                       !- Number of Vertices
  21.22, 2.38, 4.68,                      !- X,Y,Z Vertex 1 {m}
  21.22, 1.90907045441649e-16, 4.3,       !- X,Y,Z Vertex 2 {m}
  26.85, 1.90907045441649e-16, 4.3,       !- X,Y,Z Vertex 3 {m}
  26.85, 2.38, 4.68;                      !- X,Y,Z Vertex 4 {m}

Shading:Building:Detailed,
  Shading Surface 7,                      !- Name
  ,                                       !- Transmittance Schedule Name
  ,                                       !- Number of Vertices
  0, 12.41, 8.85,                         !- X,Y,Z Vertex 1 {m}
  0, 12.41, 4.3,                          !- X,Y,Z Vertex 2 {m}
  -7.39125, 4.60610944279011e-15, 4.3,    !- X,Y,Z Vertex 3 {m}
  -7.39125, 3.07215118125639e-15, 8.85;   !- X,Y,Z Vertex 4 {m}

Shading:Building:Detailed,
  Shading Surface 8,                      !- Name
  ,                                       !- Transmittance Schedule Name
  ,                                       !- Number of Vertices
  36.9, -1.78015372596205e-16, 4.3,       !- X,Y,Z Vertex 1 {m}
  36.9, 12.92, 4.3,                       !- X,Y,Z Vertex 2 {m}
  32.3, 12.92, 4.3,                       !- X,Y,Z Vertex 3 {m}
  32.3, 0, 4.3;                           !- X,Y,Z Vertex 4 {m}

Shading:Building:Detailed,
  Shading Surface 9,                      !- Name
  ,                                       !- Transmittance Schedule Name
  ,                                       !- Number of Vertices
  36.9, 3.05, 4.3,                        !- X,Y,Z Vertex 1 {m}
  36.9, 3.05, 0,                          !- X,Y,Z Vertex 2 {m}
  36.9, 12.92, 0,                         !- X,Y,Z Vertex 3 {m}
  36.9, 12.92, 4.3;                       !- X,Y,Z Vertex 4 {m}

Zone,
  N1Au401,                                !- Name
  -0,                                     !- Direction of Relative North {deg}
  1.0538779855827e-32,                    !- X Origin {m}
  2.38,                                   !- Y Origin {m}
  4.68000000000001,                       !- Z Origin {m}
  ,                                       !- Type
  ,                                       !- Multiplier
  ,                                       !- Ceiling Height {m}
  ,                                       !- Volume {m3}
  ,                                       !- Floor Area {m2}
  ,                                       !- Zone Inside Convection Algorithm
  ;                                       !- Zone Outside Convection Algorithm

BuildingSurface:Detailed,
  Au401E,                                 !- Name
  Wall,                                   !- Surface Type
  M-05,                                   !- Construction Name
  N1Au401,                                !- Zone Name
  Surface,                                !- Outside Boundary Condition
  Au402O,                                 !- Outside Boundary Condition Object
  NoSun,                                  !- Sun Exposure
  NoWind,                                 !- Wind Exposure
  ,                                       !- View Factor to Ground
  ,                                       !- Number of Vertices
  7.75, 0, 4.55,                          !- X,Y,Z Vertex 1 {m}
  7.75, 0, 0,                             !- X,Y,Z Vertex 2 {m}
  7.75, 10.03, 0,                         !- X,Y,Z Vertex 3 {m}
  7.75, 10.03, 4.55;                      !- X,Y,Z Vertex 4 {m}

BuildingSurface:Detailed,
  Au401N,                                 !- Name
  Wall,                                   !- Surface Type
  M-05,                                   !- Construction Name
  N1Au401,                                !- Zone Name
  Outdoors,                               !- Outside Boundary Condition
  ,                                       !- Outside Boundary Condition Object
  SunExposed,                             !- Sun Exposure
  WindExposed,                            !- Wind Exposure
  ,                                       !- View Factor to Ground
  ,                                       !- Number of Vertices
  7.75, 10.03, 4.55,                      !- X,Y,Z Vertex 1 {m}
  7.75, 10.03, 0,                         !- X,Y,Z Vertex 2 {m}
  0, 10.03, 0,                            !- X,Y,Z Vertex 3 {m}
  0, 10.03, 4.55;                         !- X,Y,Z Vertex 4 {m}

FenestrationSurface:Detailed,
  V2_Au401_N1_N,                          !- Name
  Window,                                 !- Surface Type
  Ventana_6mm,                            !- Construction Name
  Au401N,                                 !- Building Surface Name
  ,                                       !- Outside Boundary Condition Object
  ,                                       !- View Factor to Ground
  ,                                       !- Frame and Divider Name
  ,                                       !- Multiplier
  ,                                       !- Number of Vertices
  6.27, 10.03, 3.22,                      !- X,Y,Z Vertex 1 {m}
  6.27, 10.03, 0.77,                      !- X,Y,Z Vertex 2 {m}
  0.65, 10.03, 0.77,                      !- X,Y,Z Vertex 3 {m}
  0.65, 10.03, 3.22;                      !- X,Y,Z Vertex 4 {m}

BuildingSurface:Detailed,
  Au401O,                                 !- Name
  Wall,                                   !- Surface Type
  M-16_MC-04_M-16,                        !- Construction Name
  N1Au401,                                !- Zone Name
  Outdoors,                               !- Outside Boundary Condition
  ,                                       !- Outside Boundary Condition Object
  SunExposed,                             !- Sun Exposure
  WindExposed,                            !- Wind Exposure
  ,                                       !- View Factor to Ground
  ,                                       !- Number of Vertices
  0, 10.03, 4.55,                         !- X,Y,Z Vertex 1 {m}
  0, 10.03, 0,                            !- X,Y,Z Vertex 2 {m}
  0, 4.71, 0,                             !- X,Y,Z Vertex 3 {m}
  0, 4.71, 4.54999999999999;              !- X,Y,Z Vertex 4 {m}

BuildingSurface:Detailed,
  Au401O 1,                               !- Name
  Wall,                                   !- Surface Type
  M-05,                                   !- Construction Name
  N1Au401,                                !- Zone Name
  Outdoors,                               !- Outside Boundary Condition
  ,                                       !- Outside Boundary Condition Object
  SunExposed,                             !- Sun Exposure
  WindExposed,                            !- Wind Exposure
  ,                                       !- View Factor to Ground
  ,                                       !- Number of Vertices
  0, 0, 4.55,                             !- X,Y,Z Vertex 1 {m}
  0, 4.71, 4.54999999999999,              !- X,Y,Z Vertex 2 {m}
  0, 4.71, 0,                             !- X,Y,Z Vertex 3 {m}
  0, 0, 0;                                !- X,Y,Z Vertex 4 {m}

BuildingSurface:Detailed,
  Au401P2,                                !- Name
  Floor,                                  !- Surface Type
  PS-01,                                  !- Construction Name
  N1Au401,                                !- Zone Name
  Surface,                                !- Outside Boundary Condition
  DuctoCOFIT,                             !- Outside Boundary Condition Object
  NoSun,                                  !- Sun Exposure
  NoWind,                                 !- Wind Exposure
  ,                                       !- View Factor to Ground
  ,                                       !- Number of Vertices
  4.54, 4.71, 0,                          !- X,Y,Z Vertex 1 {m}
  4.54, 0.52, 0,                          !- X,Y,Z Vertex 2 {m}
  7.75, 0.52, 0,                          !- X,Y,Z Vertex 3 {m}
  7.75, 0, 0,                             !- X,Y,Z Vertex 4 {m}
  0, 0, 0,                                !- X,Y,Z Vertex 5 {m}
  0, 4.71, 0;                             !- X,Y,Z Vertex 6 {m}

BuildingSurface:Detailed,
  Au401P3,                                !- Name
  Floor,                                  !- Surface Type
  PS-01,                                  !- Construction Name
  N1Au401,                                !- Zone Name
  Surface,                                !- Outside Boundary Condition
  CoorT,                                  !- Outside Boundary Condition Object
  NoSun,                                  !- Sun Exposure
  NoWind,                                 !- Wind Exposure
  ,                                       !- View Factor to Ground
  ,                                       !- Number of Vertices
  4.54, 10.03, 0,                         !- X,Y,Z Vertex 1 {m}
  4.54, 4.71, 0,                          !- X,Y,Z Vertex 2 {m}
  0, 4.71, 0,                             !- X,Y,Z Vertex 3 {m}
  0, 10.03, 0;                            !- X,Y,Z Vertex 4 {m}

BuildingSurface:Detailed,
  Au401P4,                                !- Name
  Floor,                                  !- Surface Type
  PS-01 Reversed,                         !- Construction Name
  N1Au401,                                !- Zone Name
  Surface,                                !- Outside Boundary Condition
  AdminT1,                                !- Outside Boundary Condition Object
  NoSun,                                  !- Sun Exposure
  NoWind,                                 !- Wind Exposure
  ,                                       !- View Factor to Ground
  ,                                       !- Number of Vertices
  7.75, 10.03, 0,                         !- X,Y,Z Vertex 1 {m}
  7.75, 0.52, 0,                          !- X,Y,Z Vertex 2 {m}
  4.54, 0.52, 0,                          !- X,Y,Z Vertex 3 {m}
  4.54, 10.03, 0;                         !- X,Y,Z Vertex 4 {m}

BuildingSurface:Detailed,
  Au401S,                                 !- Name
  Wall,                                   !- Surface Type
  M-05,                                   !- Construction Name
  N1Au401,                                !- Zone Name
  Outdoors,                               !- Outside Boundary Condition
  ,                                       !- Outside Boundary Condition Object
  SunExposed,                             !- Sun Exposure
  WindExposed,                            !- Wind Exposure
  ,                                       !- View Factor to Ground
  ,                                       !- Number of Vertices
  0.59, 0, 3.27,                          !- X,Y,Z Vertex 1 {m}
  0.59, 0, 0.719999999999999,             !- X,Y,Z Vertex 2 {m}
  6.31, 0, 0.719999999999999,             !- X,Y,Z Vertex 3 {m}
  6.31, 0, 3.27;                          !- X,Y,Z Vertex 4 {m}

FenestrationSurface:Detailed,
  V1_Au401_N1_S,                          !- Name
  Window,                                 !- Surface Type
  Ventana_6mm,                            !- Construction Name
  Au401S,                                 !- Building Surface Name
  ,                                       !- Outside Boundary Condition Object
  ,                                       !- View Factor to Ground
  ,                                       !- Frame and Divider Name
  ,                                       !- Multiplier
  ,                                       !- Number of Vertices
  0.64, 0, 3.22,                          !- X,Y,Z Vertex 1 {m}
  0.64, 0, 0.77,                          !- X,Y,Z Vertex 2 {m}
  6.26, 0, 0.77,                          !- X,Y,Z Vertex 3 {m}
  6.26, 0, 3.22;                          !- X,Y,Z Vertex 4 {m}

BuildingSurface:Detailed,
  Au401SB,                                !- Name
  Wall,                                   !- Surface Type
  M-05,                                   !- Construction Name
  N1Au401,                                !- Zone Name
  Outdoors,                               !- Outside Boundary Condition
  ,                                       !- Outside Boundary Condition Object
  SunExposed,                             !- Sun Exposure
  WindExposed,                            !- Wind Exposure
  ,                                       !- View Factor to Ground
  ,                                       !- Number of Vertices