
OS:Version,
  {43077830-5e7f-4966-aef4-2e88aa4c9669}, !- Handle
  2.9.1;                                  !- Version Identifier

OS:Schedule:Constant,
  {841f4639-a565-4787-9686-eb534fb1ce09}, !- Handle
  Always On Discrete,                     !- Name
  {6036e09b-61e0-489a-88a4-fc823d8eef91}, !- Schedule Type Limits Name
  1;                                      !- Value

OS:ScheduleTypeLimits,
  {6036e09b-61e0-489a-88a4-fc823d8eef91}, !- Handle
  Always On Discrete Limits,              !- Name
  0,                                      !- Lower Limit Value
  1,                                      !- Upper Limit Value
  Discrete,                               !- Numeric Type
  Availability;                           !- Unit Type

OS:Site,
  {e101c6bd-c3bf-47c3-8d15-fa9080fbabd2}, !- Handle
  Temixco,                                !- Name
  18.85,                                  !- Latitude {deg}
  -99.14,                                 !- Longitude {deg}
  -6,                                     !- Time Zone {hr}
  1280,                                   !- Elevation {m}
  ;                                       !- Terrain

OS:YearDescription,
  {496a73ad-a6e1-4955-bcfb-536a7b1d20b4}, !- Handle
  2018,                                   !- Calendar Year
  ,                                       !- Day of Week for Start Day
  ;                                       !- Is Leap Year

OS:ClimateZones,
  {2e0b40d2-96b1-4d14-b44c-52e90090b78a}, !- Handle
  ,                                       !- Active Institution
  ,                                       !- Active Year
  ,                                       !- Climate Zone Institution Name 1
  ,                                       !- Climate Zone Document Name 1
  ,                                       !- Climate Zone Document Year 1
  ,                                       !- Climate Zone Value 1
  CEC,                                    !- Climate Zone Institution Name 2
  California Climate Zone Descriptions,   !- Climate Zone Document Name 2
  1995,                                   !- Climate Zone Document Year 2
  ;                                       !- Climate Zone Value 2

OS:Building,
  {6227d848-4fe5-4d78-b85a-e2636376a4f7}, !- Handle
  Nuevo edificio LIER,                    !- Name
  ,                                       !- Building Sector Type
  ,                                       !- North Axis {deg}
  ,                                       !- Nominal Floor to Floor Height {m}
  ,                                       !- Space Type Name
  ,                                       !- Default Construction Set Name
  ,                                       !- Default Schedule Set Name
  ,                                       !- Standards Number of Stories
  ,                                       !- Standards Number of Above Ground Stories
  ,                                       !- Standards Template
  ,                                       !- Standards Building Type
  ,                                       !- Standards Number of Living Units
  ,                                       !- Relocatable
  ;                                       !- Nominal Floor to Ceiling Height {m}

OS:Facility,
  {e3cc7b06-ce8e-48e1-97bc-b26332320222}; !- Handle

OS:SimulationControl,
  {335f7a6f-a7a4-4254-a9fd-73ac873487dd}; !- Handle

OS:Sizing:Parameters,
  {b335caae-e771-4040-be26-ce769333d5c5}, !- Handle
  1.25,                                   !- Heating Sizing Factor
  1.15;                                   !- Cooling Sizing Factor

OS:Timestep,
  {5562372c-28ef-4436-bf45-b475e6af09ba}, !- Handle
  6;                                      !- Number of Timesteps per Hour

OS:ShadowCalculation,
  {0e8656a6-c741-4ea4-ae88-064ce27f450c}, !- Handle
  20,                                     !- Calculation Frequency
  15000;                                  !- Maximum Figures in Shadow Overlap Calculations

OS:HeatBalanceAlgorithm,
  {5ba218af-44c4-4fe0-aa28-fed5dde06b47}, !- Handle
  ConductionTransferFunction,             !- Algorithm
  200;                                    !- Surface Temperature Upper Limit {C}

OS:RunPeriod,
  {579e4c77-2d2c-4389-9f46-7a48dae114a7}, !- Handle
  Run Period 1,                           !- Name
  1,                                      !- Begin Month
  1,                                      !- Begin Day of Month
  12,                                     !- End Month
  31,                                     !- End Day of Month
  ,                                       !- Use Weather File Holidays and Special Days
  ,                                       !- Use Weather File Daylight Saving Period
  ,                                       !- Apply Weekend Holiday Rule
  ,                                       !- Use Weather File Rain Indicators
  ,                                       !- Use Weather File Snow Indicators
  ;                                       !- Number of Times Runperiod to be Repeated

OS:LifeCycleCost:Parameters,
  {9623b023-86c6-48aa-9b51-ae69f141c580}, !- Handle
  ,                                       !- Analysis Type
  ,                                       !- Discounting Convention
  ,                                       !- Inflation Approach
  ,                                       !- Real Discount Rate
  ,                                       !- Nominal Discount Rate
  ,                                       !- Inflation
  ,                                       !- Base Date Month
  ,                                       !- Base Date Year
  ,                                       !- Service Date Month
  ,                                       !- Service Date Year
  ;                                       !- Length of Study Period in Years

OS:StandardsInformation:Material,
  {0368c289-73a3-4070-b9e4-b166bb029582}, !- Handle
  {acc9b317-088e-4fa3-a849-9aec59e11271}; !- Material Name

OS:StandardsInformation:Material,
  {a1416765-39ac-46eb-8c7d-5ea2965924f2}, !- Handle
  {8f09ab24-4c76-41a0-aafb-911a9de403f8}; !- Material Name

OS:Material:NoMass,
  {65e40b5e-c92c-4fa3-ac76-593fdb5c9339}, !- Handle
  AirWallMark,                            !- Name
  VerySmooth,                             !- Roughness
  0.1,                                    !- Thermal Resistance {m2-K/W}
  0.9,                                    !- Thermal Absorptance
  0.9,                                    !- Solar Absorptance
  0.9;                                    !- Visible Absorptance

OS:StandardsInformation:Material,
  {5b2f549d-205d-469f-9b01-4429bbe81c95}, !- Handle
  {65e40b5e-c92c-4fa3-ac76-593fdb5c9339}; !- Material Name

OS:Material:AirWall,
  {fa853200-7f59-4861-aebb-682c0e7fe5ca}, !- Handle
  Air Wall Material;                      !- Name

OS:StandardsInformation:Material,
  {1d82753b-3c9c-47ed-a378-29440e49959c}, !- Handle
  {fa853200-7f59-4861-aebb-682c0e7fe5ca}; !- Material Name

OS:Construction,
  {991863e5-1179-4673-8664-27f8c54bd6b6}, !- Handle
  Apertura,                               !- Name
  {36618b5a-87a6-45c6-a59c-c5eacd80a63b}, !- Surface Rendering Name
  {ed9dd4f0-c93c-4ffb-bb14-73e60056a477}; !- Layer 1

OS:Rendering:Color,
  {36618b5a-87a6-45c6-a59c-c5eacd80a63b}, !- Handle
  Rendering Color 131,                    !- Name
  0,                                      !- Rendering Red Value
  0,                                      !- Rendering Green Value
  128;                                    !- Rendering Blue Value

OS:StandardsInformation:Construction,
  {96c92422-58a2-48e1-a320-03ad031b04f6}, !- Handle
  {991863e5-1179-4673-8664-27f8c54bd6b6}; !- Construction Name

OS:Rendering:Color,
  {e75b82f8-a03e-47a8-ab4b-faa33ca1d6e1}, !- Handle
  Rendering Color 103,                    !- Name
  233,                                    !- Rendering Red Value
  150,                                    !- Rendering Green Value
  122;                                    !- Rendering Blue Value

OS:Rendering:Color,
  {158ec2ac-6e9d-42ff-ac44-01e225235e04}, !- Handle
  Rendering Color 114,                    !- Name
  199,                                    !- Rendering Red Value
  21,                                     !- Rendering Green Value
  133;                                    !- Rendering Blue Value

OS:Rendering:Color,
  {2fce1f3d-1ed3-4f06-9830-559356085046}, !- Handle
  Rendering Color 115,                    !- Name
  123,                                    !- Rendering Red Value
  104,                                    !- Rendering Green Value
  238;                                    !- Rendering Blue Value

OS:Rendering:Color,
  {e5cd4191-1d7e-46df-a4a1-86fc56980783}, !- Handle
  Rendering Color 102,                    !- Name
  169,                                    !- Rendering Red Value
  169,                                    !- Rendering Green Value
  169;                                    !- Rendering Blue Value

OS:Rendering:Color,
  {e5e9327a-606d-468f-9ed1-aca55087eacd}, !- Handle
  Rendering Color 142,                    !- Name
  60,                                     !- Rendering Red Value
  179,                                    !- Rendering Green Value
  113;                                    !- Rendering Blue Value

OS:Rendering:Color,
  {6cabf543-8f92-4552-9ac6-926bbb2ffa04}, !- Handle
  Rendering Color 44,                     !- Name
  245,                                    !- Rendering Red Value
  255,                                    !- Rendering Green Value
  250;                                    !- Rendering Blue Value

OS:WindowMaterial:SimpleGlazingSystem,
  {a295e788-39d4-481f-93c9-8ed820ddeb5c}, !- Handle
  SGSWM_Single6mm,                        !- Name
  5.8,                                    !- U-Factor {W/m2-K}
  0.81,                                   !- Solar Heat Gain Coefficient
  0.88;                                   !- Visible Transmittance

OS:StandardsInformation:Material,
  {7973a622-9d2c-4e8a-adb5-e4ed82ca091a}, !- Handle
  {a295e788-39d4-481f-93c9-8ed820ddeb5c}; !- Material Name

OS:BuildingStory,
  {b84bd9a0-fa96-4c74-abde-86c7cdc4e312}, !- Handle
  Nivel 2,                                !- Name
  9.3,                                    !- Nominal Z Coordinate {m}
  4.55,                                   !- Nominal Floor to Floor Height {m}
  ,                                       !- Default Construction Set Name
  ,                                       !- Default Schedule Set Name
  {819de9c0-b1a2-46cb-a6a4-d786789ed22d}, !- Group Rendering Name
  4.55;                                   !- Nominal Floor to Ceiling Height {m}

OS:Rendering:Color,
  {819de9c0-b1a2-46cb-a6a4-d786789ed22d}, !- Handle
  Rendering Color 1,                      !- Name
  0,                                      !- Rendering Red Value
  85,                                     !- Rendering Green Value
  127,                                    !- Rendering Blue Value
  255;                                    !- Rendering Alpha Value

OS:BuildingStory,
  {6a16c94e-082f-478b-a805-d2b6a9758d3e}, !- Handle
  Nivel 1,                                !- Name
  4.68,                                   !- Nominal Z Coordinate {m}
  4.55,                                   !- Nominal Floor to Floor Height {m}
  ,                                       !- Default Construction Set Name
  ,                                       !- Default Schedule Set Name
  {e2856fd8-3138-4d0e-a386-fc5b47cd1dd3}, !- Group Rendering Name
  4.55;                                   !- Nominal Floor to Ceiling Height {m}

OS:Rendering:Color,
  {e2856fd8-3138-4d0e-a386-fc5b47cd1dd3}, !- Handle
  Rendering Color 2,                      !- Name
  0,                                      !- Rendering Red Value
  170,                                    !- Rendering Green Value
  0,                                      !- Rendering Blue Value
  255;                                    !- Rendering Alpha Value

OS:BuildingStory,
  {77c746ba-9858-46e8-9476-b0f45ce8be21}, !- Handle
  Planta Baja,                            !- Name
  0,                                      !- Nominal Z Coordinate {m}
  4.68,                                   !- Nominal Floor to Floor Height {m}
  ,                                       !- Default Construction Set Name
  ,                                       !- Default Schedule Set Name
  {254566e5-ffad-4b10-904e-494481ca2d3b}, !- Group Rendering Name
  3.5;                                    !- Nominal Floor to Ceiling Height {m}

OS:Rendering:Color,
  {254566e5-ffad-4b10-904e-494481ca2d3b}, !- Handle
  Rendering Color 3,                      !- Name
  210,                                    !- Rendering Red Value
  255,                                    !- Rendering Green Value
  7,                                      !- Rendering Blue Value
  255;                                    !- Rendering Alpha Value

OS:Rendering:Color,
  {2866884a-a93f-4bf3-b23a-ad44086912c6}, !- Handle
  Rendering Color 4,                      !- Name
  139,                                    !- Rendering Red Value
  0,                                      !- Rendering Green Value
  139;                                    !- Rendering Blue Value

OS:Rendering:Color,
  {c4dded7d-9052-4886-84b3-e41785c14f86}, !- Handle
  Rendering Color 5,                      !- Name
  255,                                    !- Rendering Red Value
  160,                                    !- Rendering Green Value
  122;                                    !- Rendering Blue Value

OS:Space,
  {c6c3ec0a-ff89-4a26-be9d-8c2f996e376f}, !- Handle
  Coordinación COFI,                     !- Name
  ,                                       !- Space Type Name
  {0ab72d17-4aa0-4225-9e77-e2bd56a66d45}, !- Default Construction Set Name
  ,                                       !- Default Schedule Set Name
  -0,                                     !- Direction of Relative North {deg}
  0,                                      !- X Origin {m}
  0,                                      !- Y Origin {m}
  0,                                      !- Z Origin {m}
  {c07ed33b-fc44-407e-82be-988924276034}, !- Building Story Name
  {d574b4ca-fad1-4f0a-9cab-075b3c138c99}, !- Thermal Zone Name
  ,                                       !- Part of Total Floor Area
  ,                                       !- Design Specification Outdoor Air Object Name
  ;                                       !- Building Unit Name

OS:Surface,
  {a69ae089-31e7-48af-bdda-dfddc6294bb9}, !- Handle
  CoorCOFIP,                              !- Name
  Floor,                                  !- Surface Type
  ,                                       !- Construction Name
  {c6c3ec0a-ff89-4a26-be9d-8c2f996e376f}, !- Space Name
  Outdoors,                               !- Outside Boundary Condition
  ,                                       !- Outside Boundary Condition Object
  NoSun,                                  !- Sun Exposure
  WindExposed,                            !- Wind Exposure
  ,                                       !- View Factor to Ground
  ,                                       !- Number of Vertices
  3.44, 2.9, 0,                           !- X,Y,Z Vertex 1 {m}
  3.44, 0, 0,                             !- X,Y,Z Vertex 2 {m}
  0, 0, 0,                                !- X,Y,Z Vertex 3 {m}
  0, 2.9, 0;                              !- X,Y,Z Vertex 4 {m}

OS:Surface,
  {ef7a78ed-c191-41e7-bd04-9e457ca27023}, !- Handle
  CoorCOFIO,                              !- Name
  Wall,                                   !- Surface Type
  ,                                       !- Construction Name
  {c6c3ec0a-ff89-4a26-be9d-8c2f996e376f}, !- Space Name
  Outdoors,                               !- Outside Boundary Condition
  ,                                       !- Outside Boundary Condition Object
  SunExposed,                             !- Sun Exposure
  WindExposed,                            !- Wind Exposure
  ,                                       !- View Factor to Ground
  ,                                       !- Number of Vertices
  0, 2.9, 3.59,                           !- X,Y,Z Vertex 1 {m}
  0, 2.9, 0,                              !- X,Y,Z Vertex 2 {m}
  0, 0, 0,                                !- X,Y,Z Vertex 3 {m}
  0, 0, 3.59;                             !- X,Y,Z Vertex 4 {m}

OS:Surface,
  {6d193900-8b53-4245-af7e-b9cc024c987a}, !- Handle
  CoorCOFIN,                              !- Name
  Wall,                                   !- Surface Type
  {847b2e33-e960-4810-a2f9-86b65edeb739}, !- Construction Name
  {c6c3ec0a-ff89-4a26-be9d-8c2f996e376f}, !- Space Name
  Surface,                                !- Outside Boundary Condition
  {b8cd9d4f-80e0-45d5-acb4-1a177fbf778a}, !- Outside Boundary Condition Object
  NoSun,                                  !- Sun Exposure
  NoWind,                                 !- Wind Exposure
  ,                                       !- View Factor to Ground
  ,                                       !- Number of Vertices
  3.44, 2.9, 3.59,                        !- X,Y,Z Vertex 1 {m}
  3.44, 2.9, 0,                           !- X,Y,Z Vertex 2 {m}
  0, 2.9, 0,                              !- X,Y,Z Vertex 3 {m}
  0, 2.9, 3.59;                           !- X,Y,Z Vertex 4 {m}

OS:Surface,
  {6fb7651d-9c1b-4a85-97af-fa4d3607791c}, !- Handle
  CoorCOFIE,                              !- Name
  Wall,                                   !- Surface Type
  {eb11630e-e616-482e-9992-91db9f5b5eed}, !- Construction Name
  {c6c3ec0a-ff89-4a26-be9d-8c2f996e376f}, !- Space Name
  Surface,                                !- Outside Boundary Condition
  {c7e259d0-3772-4346-93e9-96a1891dd997}, !- Outside Boundary Condition Object
  NoSun,                                  !- Sun Exposure
  NoWind,                                 !- Wind Exposure
  ,                                       !- View Factor to Ground
  ,                                       !- Number of Vertices
  3.44, 0, 3.59,                          !- X,Y,Z Vertex 1 {m}
  3.44, 0, 0,                             !- X,Y,Z Vertex 2 {m}
  3.44, 2.9, 0,                           !- X,Y,Z Vertex 3 {m}
  3.44, 2.9, 3.59;                        !- X,Y,Z Vertex 4 {m}

OS:Surface,
  {69b66f96-2c0a-426c-93e4-7bea5fe92b4f}, !- Handle
  CoorCOFISB,                             !- Name
  Wall,                                   !- Surface Type
  ,                                       !- Construction Name
  {c6c3ec0a-ff89-4a26-be9d-8c2f996e376f}, !- Space Name
  Outdoors,                               !- Outside Boundary Condition
  ,                                       !- Outside Boundary Condition Object
  SunExposed,                             !- Sun Exposure
  WindExposed,                            !- Wind Exposure
  ,                                       !- View Factor to Ground
  ,                                       !- Number of Vertices
  0.6, 0, 0.85,                           !- X,Y,Z Vertex 1 {m}
  0, 0, 0,                                !- X,Y,Z Vertex 2 {m}
  3.44, 0, 0,                             !- X,Y,Z Vertex 3 {m}
  3, 0, 0.85;                             !- X,Y,Z Vertex 4 {m}

OS:Surface,
  {ec0fb94f-553e-46c8-9af6-b9f88e6d5b06}, !- Handle
  CoorCOFIT,                              !- Name
  RoofCeiling,                            !- Surface Type
  {9baa8a73-dc2a-4c5b-a8c9-ebbdd95a5c50}, !- Construction Name
  {c6c3ec0a-ff89-4a26-be9d-8c2f996e376f}, !- Space Name
  Surface,                                !- Outside Boundary Condition
  {732d8feb-646b-46bb-92d5-628e2728af08}, !- Outside Boundary Condition Object
  NoSun,                                  !- Sun Exposure
  NoWind,                                 !- Wind Exposure
  ,                                       !- View Factor to Ground
  ,                                       !- Number of Vertices
  3.44, 0, 3.59,                          !- X,Y,Z Vertex 1 {m}
  3.44, 2.9, 3.59,                        !- X,Y,Z Vertex 2 {m}
  0, 2.9, 3.59,                           !- X,Y,Z Vertex 3 {m}
  0, 0, 3.59;                             !- X,Y,Z Vertex 4 {m}

OS:Space,
  {6798960c-0298-41b6-9659-441211f5ecf5}, !- Handle
  Vestíbulo COFI,                        !- Name
  ,                                       !- Space Type Name
  {0ab72d17-4aa0-4225-9e77-e2bd56a66d45}, !- Default Construction Set Name
  ,                                       !- Default Schedule Set Name
  -0,                                     !- Direction of Relative North {deg}
  3.44,                                   !- X Origin {m}
  2.9,                                    !- Y Origin {m}
  0,                                      !- Z Origin {m}
  {c07ed33b-fc44-407e-82be-988924276034}, !- Building Story Name
  {90287e59-3c0a-4f5c-910f-be9ed972d6ec}, !- Thermal Zone Name
  ,                                       !- Part of Total Floor Area
  ,                                       !- Design Specification Outdoor Air Object Name
  ;                                       !- Building Unit Name

OS:Surface,
  {6945c456-590e-4b77-8ccd-856213b2c1a4}, !- Handle
  VestibuloP,                             !- Name
  Floor,                                  !- Surface Type
  ,                                       !- Construction Name
  {6798960c-0298-41b6-9659-441211f5ecf5}, !- Space Name
  Outdoors,                               !- Outside Boundary Condition
  ,                                       !- Outside Boundary Condition Object
  NoSun,                                  !- Sun Exposure
  WindExposed,                            !- Wind Exposure
  ,                                       !- View Factor to Ground
  ,                                       !- Number of Vertices
  4.31, 0, 0,                             !- X,Y,Z Vertex 1 {m}
  4.31, -2.9, 0,                          !- X,Y,Z Vertex 2 {m}
  0, -2.9, 0,                             !- X,Y,Z Vertex 3 {m}
  0, 0, 0;                                !- X,Y,Z Vertex 4 {m}

OS:Surface,
  {41a4e417-71f6-4657-9b42-64034c0cc408}, !- Handle
  VestibuloN1,                            !- Name
  Wall,                                   !- Surface Type
  ,                                       !- Construction Name
  {6798960c-0298-41b6-9659-441211f5ecf5}, !- Space Name
  Surface,                                !- Outside Boundary Condition
  {08d6ebeb-3566-4273-a767-6162756adce0}, !- Outside Boundary Condition Object
  NoSun,                                  !- Sun Exposure
  NoWind,                                 !- Wind Exposure
  ,                                       !- View Factor to Ground
  ,                                       !- Number of Vertices
  4.31, 0, 3.59,                          !- X,Y,Z Vertex 1 {m}
  4.31, 0, 0,                             !- X,Y,Z Vertex 2 {m}
  1.1, 0, 0,                              !- X,Y,Z Vertex 3 {m}
  1.1, 0, 3.59;                           !- X,Y,Z Vertex 4 {m}

OS:Surface,
  {5ce19d7b-c746-4ebe-8092-fdba34bc164a}, !- Handle
  VestibuloS,                             !- Name
  Wall,                                   !- Surface Type
  ,                                       !- Construction Name
  {6798960c-0298-41b6-9659-441211f5ecf5}, !- Space Name
  Outdoors,                               !- Outside Boundary Condition
  ,                                       !- Outside Boundary Condition Object
  SunExposed,                             !- Sun Exposure
  WindExposed,                            !- Wind Exposure
  ,                                       !- View Factor to Ground
  ,                                       !- Number of Vertices
  1.51, -2.9, 3.59,                       !- X,Y,Z Vertex 1 {m}
  1.51, -2.9, 0.85,                       !- X,Y,Z Vertex 2 {m}
  3.91, -2.9, 0.85,                       !- X,Y,Z Vertex 3 {m}
  3.91, -2.9, 3.59;                       !- X,Y,Z Vertex 4 {m}

OS:Surface,
  {c7e259d0-3772-4346-93e9-96a1891dd997}, !- Handle
  VestibuloO,                             !- Name
  Wall,                                   !- Surface Type
  {eb11630e-e616-482e-9992-91db9f5b5eed}, !- Construction Name
  {6798960c-0298-41b6-9659-441211f5ecf5}, !- Space Name
  Surface,                                !- Outside Boundary Condition
  {6fb7651d-9c1b-4a85-97af-fa4d3607791c}, !- Outside Boundary Condition Object
  NoSun,                                  !- Sun Exposure
  NoWind,                                 !- Wind Exposure
  ,                                       !- View Factor to Ground
  ,                                       !- Number of Vertices
  0, 0, 3.59,                             !- X,Y,Z Vertex 1 {m}
  0, 0, 0,                                !- X,Y,Z Vertex 2 {m}
  0, -2.9, 0,                             !- X,Y,Z Vertex 3 {m}
  0, -2.9, 3.59;                          !- X,Y,Z Vertex 4 {m}

OS:Space,
  {316659b9-5273-4b41-b54e-1aa10f6180b8}, !- Handle
  Administración,                        !- Name
  ,                                       !- Space Type Name
  {0ab72d17-4aa0-4225-9e77-e2bd56a66d45}, !- Default Construction Set Name
  ,                                       !- Default Schedule Set Name
  -0,                                     !- Direction of Relative North {deg}
  11.96,                                  !- X Origin {m}
  0,                                      !- Y Origin {m}
  0,                                      !- Z Origin {m}
  {77c746ba-9858-46e8-9476-b0f45ce8be21}, !- Building Story Name
  {a2cd2de9-1007-4bed-9e16-ce22ff153aad}, !- Thermal Zone Name
  ,                                       !- Part of Total Floor Area
  ,                                       !- Design Specification Outdoor Air Object Name
  ;                                       !- Building Unit Name

OS:Surface,
  {8936ee67-ffbb-4576-b31d-4087ea03a5d6}, !- Handle
  AdminP,                                 !- Name
  Floor,                                  !- Surface Type
  ,                                       !- Construction Name
  {316659b9-5273-4b41-b54e-1aa10f6180b8}, !- Space Name
  Outdoors,                               !- Outside Boundary Condition
  ,                                       !- Outside Boundary Condition Object
  NoSun,                                  !- Sun Exposure
  WindExposed,                            !- Wind Exposure
  ,                                       !- View Factor to Ground
  ,                                       !- Number of Vertices
  0, 12.41, 0,                            !- X,Y,Z Vertex 1 {m}
  0, 0, 0,                                !- X,Y,Z Vertex 2 {m}
  -4.21, 0, 0,                            !- X,Y,Z Vertex 3 {m}
  -4.21, 2.9, 0,                          !- X,Y,Z Vertex 4 {m}
  -7.42, 2.9, 0,                          !- X,Y,Z Vertex 5 {m}
  -7.42, 12.41, 0;                        !- X,Y,Z Vertex 6 {m}

OS:Surface,
  {ab3b788d-dff0-45f8-8dee-771ebc720ae8}, !- Handle
  AdminS,                                 !- Name
  Wall,                                   !- Surface Type
  {56aed68c-e27f-46b0-8bf4-4daca460e6b1}, !- Construction Name
  {316659b9-5273-4b41-b54e-1aa10f6180b8}, !- Space Name
  Outdoors,                               !- Outside Boundary Condition
  ,                                       !- Outside Boundary Condition Object
  SunExposed,                             !- Sun Exposure
  WindExposed,                            !- Wind Exposure
  ,                                       !- View Factor to Ground
  ,                                       !- Number of Vertices
  -4.21, 0, 4.68,                         !- X,Y,Z Vertex 1 {m}
  -4.21, 0, 0,                            !- X,Y,Z Vertex 2 {m}
  0, 0, 0,                                !- X,Y,Z Vertex 3 {m}
  0, 0, 4.68;                             !- X,Y,Z Vertex 4 {m}

OS:Surface,
  {5e8abae8-58a0-4b42-a182-0e3d50523a45}, !- Handle
  AdminO,                                 !- Name
  Wall,                                   !- Surface Type
  {847b2e33-e960-4810-a2f9-86b65edeb739}, !- Construction Name
  {316659b9-5273-4b41-b54e-1aa10f6180b8}, !- Space Name
  Surface,                                !- Outside Boundary Condition
  {7602a106-ff9d-4af7-a924-7a7858c0d73e}, !- Outside Boundary Condition Object
  NoSun,                                  !- Sun Exposure
  NoWind,                                 !- Wind Exposure
  ,                                       !- View Factor to Ground
  ,                                       !- Number of Vertices
  -4.21, 2.9, 3.59,                       !- X,Y,Z Vertex 1 {m}
  -4.21, 2.9, 0,                          !- X,Y,Z Vertex 2 {m}
  -4.21, 0, 0,                            !- X,Y,Z Vertex 3 {m}
  -4.21, 0, 3.59;                         !- X,Y,Z Vertex 4 {m}

OS:Surface,
  {5370d5ce-ffc0-468f-9a16-0c4fc14f0fd8}, !- Handle
  AdminS1,                                !- Name
  Wall,                                   !- Surface Type
  {56aed68c-e27f-46b0-8bf4-4daca460e6b1}, !- Construction Name
  {316659b9-5273-4b41-b54e-1aa10f6180b8}, !- Space Name
  Surface,                                !- Outside Boundary Condition
  {cb230037-7154-4b28-9c64-40744137dc72}, !- Outside Boundary Condition Object
  NoSun,                                  !- Sun Exposure
  NoWind,                                 !- Wind Exposure
  ,                                       !- View Factor to Ground
  ,                                       !- Number of Vertices
  -7.42, 2.9, 4.68,                       !- X,Y,Z Vertex 1 {m}
  -7.42, 2.9, 3.59,                       !- X,Y,Z Vertex 2 {m}
  -4.21, 2.9, 3.59,                       !- X,Y,Z Vertex 3 {m}
  -4.21, 2.9, 4.68;                       !- X,Y,Z Vertex 4 {m}

OS:Surface,
  {5ae5d09f-23a0-4720-97f9-acda3863ad88}, !- Handle
  AdminO1,                                !- Name
  Wall,                                   !- Surface Type
  {eb11630e-e616-482e-9992-91db9f5b5eed}, !- Construction Name